<?xml version="1.0" encoding="UTF-8"?>

<!-- generated on 2025-12-07T11:15:10.020011-05:00 by Eclipse SUMO netedit 1.25.0
<neteditConfiguration xmlns:xsi="http://www.w3.org/2001/XMLSchema-instance" xsi:noNamespaceSchemaLocation="http://sumo.dlr.de/xsd/neteditConfiguration.xsd">

    <input>
        <sumo-net-file value="map.net.xml"/>
    </input>

    <output>
        <output-file value="map.net.xml"/>
    </output>

    <processing>
        <geometry.min-radius.fix.railways value="false"/>
        <geometry.avoid-overlap value="false"/>
        <geometry.max-grade.fix value="false"/>
        <offset.disable-normalization value="true"/>
        <lefthand value="0"/>
    </processing>

    <junctions>
        <no-turnarounds value="true"/>
        <junctions.corner-detail value="5"/>
        <junctions.limit-turn-speed value="5.50"/>
        <rectangular-lane-cut value="0"/>
    </junctions>

    <pedestrian>
        <walkingareas value="0"/>
    </pedestrian>

</neteditConfiguration>
-->

<net version="1.20" junctionCornerDetail="5" limitTurnSpeed="5.50" avoidOverlap="0" xmlns:xsi="http://www.w3.org/2001/XMLSchema-instance" xsi:noNamespaceSchemaLocation="http://sumo.dlr.de/xsd/net_file.xsd">

    <location netOffset="-777469.98,21751.45" convBoundary="739.26,201.71,1594.51,933.70" origBoundary="-78.507226,-0.196603,-78.483842,-0.176746" projParameter="+proj=utm +zone=17 +ellps=WGS84 +datum=WGS84 +units=m +no_defs"/>

    <type id="highway.primary" priority="12" numLanes="2" speed="27.78" disallow="tram rail_urban rail rail_electric rail_fast ship container cable_car subway aircraft wheelchair scooter drone" oneway="0"/>
    <type id="highway.residential" priority="3" numLanes="1" speed="13.89" disallow="tram rail_urban rail rail_electric rail_fast ship container cable_car subway aircraft wheelchair scooter drone" oneway="0"/>
    <type id="highway.secondary" priority="11" numLanes="1" speed="27.78" disallow="tram rail_urban rail rail_electric rail_fast ship container cable_car subway aircraft wheelchair scooter drone" oneway="0"/>
    <type id="highway.tertiary" priority="10" numLanes="1" speed="22.22" disallow="tram rail_urban rail rail_electric rail_fast ship container cable_car subway aircraft wheelchair scooter drone" oneway="0"/>

    <edge id=":J14_0" function="internal">
        <lane id=":J14_0_0" index="0" disallow="tram rail_urban rail rail_electric rail_fast ship container cable_car subway aircraft wheelchair scooter drone" speed="3.65" length="4.67" shape="763.27,500.96 763.36,499.52 763.85,498.78 764.74,498.72 766.03,499.36"/>
    </edge>
    <edge id=":cluster9081319370_cluster_262185781_9081319364_9081319367_9081319373_0" function="internal">
        <lane id=":cluster9081319370_cluster_262185781_9081319364_9081319367_9081319373_0_0" index="0" disallow="tram rail_urban rail rail_electric rail_fast ship container cable_car subway aircraft wheelchair scooter drone" speed="13.89" length="16.76" shape="967.52,601.24 966.59,597.32 965.82,593.01 964.91,588.75 963.58,584.98"/>
    </edge>
    <edge id=":cluster9081319370_cluster_262185781_9081319364_9081319367_9081319373_1" function="internal">
        <lane id=":cluster9081319370_cluster_262185781_9081319364_9081319367_9081319373_1_0" index="0" disallow="tram rail_urban rail rail_electric rail_fast ship container cable_car subway aircraft wheelchair scooter drone" speed="9.23" length="3.30" shape="967.52,601.24 967.30,598.12 967.36,597.97"/>
    </edge>
    <edge id=":cluster9081319370_cluster_262185781_9081319364_9081319367_9081319373_2" function="internal">
        <lane id=":cluster9081319370_cluster_262185781_9081319364_9081319367_9081319373_2_0" index="0" disallow="tram rail_urban rail rail_electric rail_fast ship container cable_car subway aircraft wheelchair scooter drone" speed="3.65" length="1.44" shape="967.52,601.24 967.93,599.86"/>
    </edge>
    <edge id=":cluster9081319370_cluster_262185781_9081319364_9081319367_9081319373_10" function="internal">
        <lane id=":cluster9081319370_cluster_262185781_9081319364_9081319367_9081319373_10_0" index="0" disallow="tram rail_urban rail rail_electric rail_fast ship container cable_car subway aircraft wheelchair scooter drone" speed="9.23" length="12.57" shape="967.36,597.97 968.59,595.04 971.40,592.00 975.72,589.01"/>
    </edge>
    <edge id=":cluster9081319370_cluster_262185781_9081319364_9081319367_9081319373_11" function="internal">
        <lane id=":cluster9081319370_cluster_262185781_9081319364_9081319367_9081319373_11_0" index="0" disallow="tram rail_urban rail rail_electric rail_fast ship container cable_car subway aircraft wheelchair scooter drone" speed="3.65" length="3.23" shape="967.93,599.86 968.57,599.24 969.46,599.39 970.58,600.30"/>
    </edge>
    <edge id=":cluster9081319370_cluster_262185781_9081319364_9081319367_9081319373_3" function="internal">
        <lane id=":cluster9081319370_cluster_262185781_9081319364_9081319367_9081319373_3_0" index="0" disallow="tram rail_urban rail rail_electric rail_fast ship container cable_car subway aircraft wheelchair scooter drone" speed="6.46" length="9.40" shape="966.46,583.58 967.95,585.83 969.73,587.02 971.78,587.16 974.11,586.25"/>
    </edge>
    <edge id=":cluster9081319370_cluster_262185781_9081319364_9081319367_9081319373_4" function="internal">
        <lane id=":cluster9081319370_cluster_262185781_9081319364_9081319367_9081319373_4_0" index="0" disallow="tram rail_urban rail rail_electric rail_fast ship container cable_car subway aircraft wheelchair scooter drone" speed="13.89" length="17.25" shape="966.46,583.58 967.82,587.42 968.78,591.83 969.62,596.30 970.58,600.30"/>
    </edge>
    <edge id=":cluster9081319370_cluster_262185781_9081319364_9081319367_9081319373_5" function="internal">
        <lane id=":cluster9081319370_cluster_262185781_9081319364_9081319367_9081319373_5_0" index="0" disallow="tram rail_urban rail rail_electric rail_fast ship container cable_car subway aircraft wheelchair scooter drone" speed="3.65" length="1.44" shape="966.46,583.58 966.27,585.01"/>
    </edge>
    <edge id=":cluster9081319370_cluster_262185781_9081319364_9081319367_9081319373_12" function="internal">
        <lane id=":cluster9081319370_cluster_262185781_9081319364_9081319367_9081319373_12_0" index="0" disallow="tram rail_urban rail rail_electric rail_fast ship container cable_car subway aircraft wheelchair scooter drone" speed="3.65" length="3.23" shape="966.27,585.01 965.72,585.72 964.83,585.71 963.58,584.98"/>
    </edge>
    <edge id=":cluster9081319370_cluster_262185781_9081319364_9081319367_9081319373_6" function="internal">
        <lane id=":cluster9081319370_cluster_262185781_9081319364_9081319367_9081319373_6_0" index="0" disallow="tram rail_urban rail rail_electric rail_fast ship container cable_car subway aircraft wheelchair scooter drone" speed="7.90" length="13.11" shape="958.95,595.72 962.13,593.39 963.97,590.83 964.45,588.02 963.58,584.98"/>
    </edge>
    <edge id=":cluster9081319370_cluster_262185781_9081319364_9081319367_9081319373_7" function="internal">
        <lane id=":cluster9081319370_cluster_262185781_9081319364_9081319367_9081319373_7_0" index="0" disallow="tram rail_urban rail rail_electric rail_fast ship container cable_car subway aircraft wheelchair scooter drone" speed="8.33" length="17.89" shape="958.95,595.72 974.11,586.25"/>
        <lane id=":cluster9081319370_cluster_262185781_9081319364_9081319367_9081319373_7_1" index="1" disallow="tram rail_urban rail rail_electric rail_fast ship container cable_car subway aircraft wheelchair scooter drone" speed="8.33" length="17.89" shape="960.54,598.50 975.72,589.01"/>
    </edge>
    <edge id=":cluster9081319370_cluster_262185781_9081319364_9081319367_9081319373_9" function="internal">
        <lane id=":cluster9081319370_cluster_262185781_9081319364_9081319367_9081319373_9_0" index="0" disallow="tram rail_urban rail rail_electric rail_fast ship container cable_car subway aircraft wheelchair scooter drone" speed="6.94" length="12.17" shape="960.54,598.50 964.19,596.88 967.07,596.64 969.20,597.78 970.58,600.30"/>
    </edge>
    <edge id=":clusterJ0_J2_J3_0" function="internal">
        <lane id=":clusterJ0_J2_J3_0_0" index="0" disallow="tram rail_urban rail rail_electric rail_fast ship container cable_car subway aircraft wheelchair scooter drone" speed="7.05" length="10.57" shape="1316.54,750.45 1318.18,752.75 1320.22,753.98 1322.63,754.14 1325.43,753.23"/>
    </edge>
    <edge id=":clusterJ0_J2_J3_1" function="internal">
        <lane id=":clusterJ0_J2_J3_1_0" index="0" disallow="tram rail_urban rail rail_electric rail_fast ship container cable_car subway aircraft wheelchair scooter drone" speed="8.33" length="11.86" shape="1316.54,750.45 1321.89,761.06"/>
        <lane id=":clusterJ0_J2_J3_1_1" index="1" disallow="tram rail_urban rail rail_electric rail_fast ship container cable_car subway aircraft wheelchair scooter drone" speed="8.33" length="11.86" shape="1313.69,751.91 1319.02,762.48"/>
    </edge>
    <edge id=":clusterJ0_J2_J3_3" function="internal">
        <lane id=":clusterJ0_J2_J3_3_0" index="0" disallow="tram rail_urban rail rail_electric rail_fast ship container cable_car subway aircraft wheelchair scooter drone" speed="13.89" length="15.41" shape="1311.25,759.26 1325.43,753.23"/>
    </edge>
    <edge id=":clusterJ0_J2_J3_4" function="internal">
        <lane id=":clusterJ0_J2_J3_4_0" index="0" disallow="tram rail_urban rail rail_electric rail_fast ship container cable_car subway aircraft wheelchair scooter drone" speed="6.69" length="9.57" shape="1311.25,759.26 1313.60,758.55 1315.68,758.85 1317.49,760.16 1319.02,762.48"/>
    </edge>
    <edge id=":clusterJ0_cluster_262164910_9300901788_9300901791_9300901794_#1more_0" function="internal">
        <lane id=":clusterJ0_cluster_262164910_9300901788_9300901791_9300901794_#1more_0_0" index="0" disallow="tram rail_urban rail rail_electric rail_fast ship container cable_car subway aircraft wheelchair scooter drone" speed="6.76" length="9.48" shape="1291.06,298.30 1289.65,296.05 1287.90,294.74 1285.80,294.37 1283.36,294.95"/>
    </edge>
    <edge id=":clusterJ0_cluster_262164910_9300901788_9300901791_9300901794_#1more_1" function="internal">
        <lane id=":clusterJ0_cluster_262164910_9300901788_9300901791_9300901794_#1more_1_0" index="0" disallow="tram rail_urban rail rail_electric rail_fast ship container cable_car subway aircraft wheelchair scooter drone" speed="3.65" length="4.67" shape="1291.06,298.30 1291.29,296.88 1291.85,296.18 1292.75,296.21 1293.97,296.97"/>
    </edge>
    <edge id=":clusterJ0_cluster_262164910_9300901788_9300901791_9300901794_#1more_2" function="internal">
        <lane id=":clusterJ0_cluster_262164910_9300901788_9300901791_9300901794_#1more_2_0" index="0" disallow="tram rail_urban rail rail_electric rail_fast ship container cable_car subway aircraft wheelchair scooter drone" speed="6.37" length="9.04" shape="1296.93,289.75 1294.75,290.96 1293.53,292.57 1293.27,294.57 1293.97,296.97"/>
    </edge>
    <edge id=":clusterJ0_cluster_262164910_9300901788_9300901791_9300901794_#1more_3" function="internal">
        <lane id=":clusterJ0_cluster_262164910_9300901788_9300901791_9300901794_#1more_3_0" index="0" disallow="tram rail_urban rail rail_electric rail_fast ship container cable_car subway aircraft wheelchair scooter drone" speed="22.22" length="14.56" shape="1296.93,289.75 1283.36,294.95"/>
        <lane id=":clusterJ0_cluster_262164910_9300901788_9300901791_9300901794_#1more_3_1" index="1" disallow="tram rail_urban rail rail_electric rail_fast ship container cable_car subway aircraft wheelchair scooter drone" speed="22.22" length="14.56" shape="1295.79,286.76 1282.18,291.97"/>
    </edge>
    <edge id=":clusterJ11_J12_J13_0" function="internal">
        <lane id=":clusterJ11_J12_J13_0_0" index="0" disallow="tram rail_urban rail rail_electric rail_fast ship container cable_car subway aircraft wheelchair scooter drone" speed="6.95" length="10.61" shape="1208.66,330.83 1207.09,327.92 1205.24,326.15 1203.09,325.53 1200.65,326.06"/>
    </edge>
    <edge id=":clusterJ11_J12_J13_1" function="internal">
        <lane id=":clusterJ11_J12_J13_1_0" index="0" disallow="tram rail_urban rail rail_electric rail_fast ship container cable_car subway aircraft wheelchair scooter drone" speed="22.22" length="16.34" shape="1208.66,330.83 1202.47,315.73"/>
        <lane id=":clusterJ11_J12_J13_1_1" index="1" disallow="tram rail_urban rail rail_electric rail_fast ship container cable_car subway aircraft wheelchair scooter drone" speed="22.22" length="16.34" shape="1211.62,329.63 1205.42,314.50"/>
    </edge>
    <edge id=":clusterJ11_J12_J13_3" function="internal">
        <lane id=":clusterJ11_J12_J13_3_0" index="0" disallow="tram rail_urban rail rail_electric rail_fast ship container cable_car subway aircraft wheelchair scooter drone" speed="22.22" length="14.64" shape="1214.72,322.36 1210.61,323.67 1207.66,324.15 1204.72,324.65 1200.65,326.06"/>
        <lane id=":clusterJ11_J12_J13_3_1" index="1" disallow="tram rail_urban rail rail_electric rail_fast ship container cable_car subway aircraft wheelchair scooter drone" speed="22.22" length="14.64" shape="1213.54,319.38 1209.40,320.71 1206.44,321.19 1203.48,321.70 1199.39,323.12"/>
    </edge>
    <edge id=":clusterJ11_J12_J13_5" function="internal">
        <lane id=":clusterJ11_J12_J13_5_0" index="0" disallow="tram rail_urban rail rail_electric rail_fast ship container cable_car subway aircraft wheelchair scooter drone" speed="7.06" length="4.28" shape="1213.54,319.38 1211.07,319.86 1209.38,319.35"/>
    </edge>
    <edge id=":clusterJ11_J12_J13_6" function="internal">
        <lane id=":clusterJ11_J12_J13_6_0" index="0" disallow="tram rail_urban rail rail_electric rail_fast ship container cable_car subway aircraft wheelchair scooter drone" speed="7.06" length="6.42" shape="1209.38,319.35 1208.90,319.21 1207.01,317.42 1205.42,314.50"/>
    </edge>
    <edge id=":clusterJ15_J16_J18_J19_0" function="internal">
        <lane id=":clusterJ15_J16_J18_J19_0_0" index="0" disallow="tram rail_urban rail rail_electric rail_fast ship container cable_car subway aircraft wheelchair scooter drone" speed="6.36" length="9.04" shape="795.47,558.13 794.11,556.02 792.43,554.91 790.41,554.79 788.07,555.66"/>
    </edge>
    <edge id=":clusterJ15_J16_J18_J19_1" function="internal">
        <lane id=":clusterJ15_J16_J18_J19_1_0" index="0" disallow="tram rail_urban rail rail_electric rail_fast ship container cable_car subway aircraft wheelchair scooter drone" speed="13.89" length="14.56" shape="795.47,558.13 793.92,554.79 792.34,551.55 790.69,548.35 788.90,545.14"/>
    </edge>
    <edge id=":clusterJ15_J16_J18_J19_2" function="internal">
        <lane id=":clusterJ15_J16_J18_J19_2_0" index="0" disallow="tram rail_urban rail rail_electric rail_fast ship container cable_car subway aircraft wheelchair scooter drone" speed="7.01" length="9.83" shape="801.00,548.43 798.92,550.07 797.78,552.02 797.59,554.27 798.35,556.82"/>
    </edge>
    <edge id=":clusterJ15_J16_J18_J19_3" function="internal">
        <lane id=":clusterJ15_J16_J18_J19_3_0" index="0" disallow="tram rail_urban rail rail_electric rail_fast ship container cable_car subway aircraft wheelchair scooter drone" speed="22.22" length="14.77" shape="801.00,548.43 788.07,555.66"/>
        <lane id=":clusterJ15_J16_J18_J19_3_1" index="1" disallow="tram rail_urban rail rail_electric rail_fast ship container cable_car subway aircraft wheelchair scooter drone" speed="22.22" length="14.77" shape="799.39,545.66 786.54,552.85"/>
    </edge>
    <edge id=":clusterJ15_J16_J18_J19_5" function="internal">
        <lane id=":clusterJ15_J16_J18_J19_5_0" index="0" disallow="tram rail_urban rail rail_electric rail_fast ship container cable_car subway aircraft wheelchair scooter drone" speed="7.35" length="11.83" shape="799.39,545.66 795.88,547.29 792.96,547.75 790.64,547.03 788.90,545.14"/>
    </edge>
    <edge id=":clusterJ15_J16_J18_J19_6" function="internal">
        <lane id=":clusterJ15_J16_J18_J19_6_0" index="0" disallow="tram rail_urban rail rail_electric rail_fast ship container cable_car subway aircraft wheelchair scooter drone" speed="13.89" length="14.88" shape="791.68,543.53 793.49,546.79 795.18,550.09 796.78,553.43 798.35,556.82"/>
    </edge>
    <edge id=":clusterJ15_J16_J18_J19_7" function="internal">
        <lane id=":clusterJ15_J16_J18_J19_7_0" index="0" disallow="tram rail_urban rail rail_electric rail_fast ship container cable_car subway aircraft wheelchair scooter drone" speed="7.34" length="2.67" shape="791.68,543.53 792.43,545.97 792.41,546.08"/>
    </edge>
    <edge id=":clusterJ15_J16_J18_J19_8" function="internal">
        <lane id=":clusterJ15_J16_J18_J19_8_0" index="0" disallow="tram rail_urban rail rail_electric rail_fast ship container cable_car subway aircraft wheelchair scooter drone" speed="7.34" length="9.35" shape="792.41,546.08 791.83,548.34 789.86,550.63 786.54,552.85"/>
    </edge>
    <edge id=":clusterJ1_J10_J3_J9_0" function="internal">
        <lane id=":clusterJ1_J10_J3_J9_0_0" index="0" disallow="tram rail_urban rail rail_electric rail_fast ship container cable_car subway aircraft wheelchair scooter drone" speed="13.89" length="14.96" shape="846.90,670.45 840.75,656.81"/>
    </edge>
    <edge id=":clusterJ1_J10_J3_J9_1" function="internal">
        <lane id=":clusterJ1_J10_J3_J9_1_0" index="0" disallow="tram rail_urban rail rail_electric rail_fast ship container cable_car subway aircraft wheelchair scooter drone" speed="7.74" length="12.17" shape="846.90,670.45 846.35,667.89 847.06,665.43 849.01,663.06 852.21,660.80"/>
    </edge>
    <edge id=":clusterJ1_J10_J3_J9_2" function="internal">
        <lane id=":clusterJ1_J10_J3_J9_2_0" index="0" disallow="tram rail_urban rail rail_electric rail_fast ship container cable_car subway aircraft wheelchair scooter drone" speed="6.30" length="9.04" shape="843.24,655.67 844.59,657.79 846.27,658.88 848.28,658.96 850.61,658.03"/>
    </edge>
    <edge id=":clusterJ1_J10_J3_J9_3" function="internal">
        <lane id=":clusterJ1_J10_J3_J9_3_0" index="0" disallow="tram rail_urban rail rail_electric rail_fast ship container cable_car subway aircraft wheelchair scooter drone" speed="6.98" length="9.92" shape="837.98,665.20 840.13,663.58 841.31,661.64 841.52,659.38 840.75,656.81"/>
    </edge>
    <edge id=":clusterJ1_J10_J3_J9_4" function="internal">
        <lane id=":clusterJ1_J10_J3_J9_4_0" index="0" disallow="tram rail_urban rail rail_electric rail_fast ship container cable_car subway aircraft wheelchair scooter drone" speed="8.33" length="14.56" shape="837.98,665.20 850.61,658.03"/>
        <lane id=":clusterJ1_J10_J3_J9_4_1" index="1" disallow="tram rail_urban rail rail_electric rail_fast ship container cable_car subway aircraft wheelchair scooter drone" speed="8.33" length="14.56" shape="839.53,668.00 852.21,660.80"/>
    </edge>
    <edge id=":clusterJ1_J10_J3_J9_6" function="internal">
        <lane id=":clusterJ1_J10_J3_J9_6_0" index="0" disallow="tram rail_urban rail rail_electric rail_fast ship container cable_car subway aircraft wheelchair scooter drone" speed="7.17" length="11.89" shape="839.53,668.00 843.11,666.44 846.02,666.11 848.26,667.00 849.83,669.13"/>
    </edge>
    <edge id=":clusterJ1_J2_J3_0" function="internal">
        <lane id=":clusterJ1_J2_J3_0_0" index="0" disallow="tram rail_urban rail rail_electric rail_fast ship container cable_car subway aircraft wheelchair scooter drone" speed="13.89" length="15.33" shape="1332.16,388.21 1325.79,374.27"/>
    </edge>
    <edge id=":clusterJ1_J2_J3_1" function="internal">
        <lane id=":clusterJ1_J2_J3_1_0" index="0" disallow="tram rail_urban rail rail_electric rail_fast ship container cable_car subway aircraft wheelchair scooter drone" speed="7.78" length="2.81" shape="1332.16,388.21 1331.54,385.47"/>
    </edge>
    <edge id=":clusterJ1_J2_J3_8" function="internal">
        <lane id=":clusterJ1_J2_J3_8_0" index="0" disallow="tram rail_urban rail rail_electric rail_fast ship container cable_car subway aircraft wheelchair scooter drone" speed="7.78" length="9.86" shape="1331.54,385.47 1332.24,382.90 1334.27,380.48 1337.62,378.23"/>
    </edge>
    <edge id=":clusterJ1_J2_J3_2" function="internal">
        <lane id=":clusterJ1_J2_J3_2_0" index="0" disallow="tram rail_urban rail rail_electric rail_fast ship container cable_car subway aircraft wheelchair scooter drone" speed="6.37" length="9.04" shape="1328.70,372.94 1330.05,375.04 1331.74,376.15 1333.75,376.28 1336.10,375.42"/>
    </edge>
    <edge id=":clusterJ1_J2_J3_3" function="internal">
        <lane id=":clusterJ1_J2_J3_3_0" index="0" disallow="tram rail_urban rail rail_electric rail_fast ship container cable_car subway aircraft wheelchair scooter drone" speed="13.89" length="15.33" shape="1328.70,372.94 1335.07,386.88"/>
    </edge>
    <edge id=":clusterJ1_J2_J3_4" function="internal">
        <lane id=":clusterJ1_J2_J3_4_0" index="0" disallow="tram rail_urban rail rail_electric rail_fast ship container cable_car subway aircraft wheelchair scooter drone" speed="7.19" length="10.34" shape="1323.15,383.15 1325.29,381.42 1326.45,379.37 1326.61,376.98 1325.79,374.27"/>
    </edge>
    <edge id=":clusterJ1_J2_J3_5" function="internal">
        <lane id=":clusterJ1_J2_J3_5_0" index="0" disallow="tram rail_urban rail rail_electric rail_fast ship container cable_car subway aircraft wheelchair scooter drone" speed="8.33" length="15.02" shape="1323.15,383.15 1336.10,375.42"/>
        <lane id=":clusterJ1_J2_J3_5_1" index="1" disallow="tram rail_urban rail rail_electric rail_fast ship container cable_car subway aircraft wheelchair scooter drone" speed="8.33" length="15.02" shape="1324.79,385.90 1337.62,378.23"/>
    </edge>
    <edge id=":clusterJ1_J2_J3_7" function="internal">
        <lane id=":clusterJ1_J2_J3_7_0" index="0" disallow="tram rail_urban rail rail_electric rail_fast ship container cable_car subway aircraft wheelchair scooter drone" speed="7.12" length="11.93" shape="1324.79,385.90 1328.33,384.24 1331.23,383.85 1333.48,384.73 1335.07,386.88"/>
    </edge>
    <edge id=":clusterJ20_J21_J23_J24_0" function="internal">
        <lane id=":clusterJ20_J21_J23_J24_0_0" index="0" disallow="tram rail_urban rail rail_electric rail_fast ship container cable_car subway aircraft wheelchair scooter drone" speed="6.38" length="9.04" shape="1539.20,553.04 1537.94,550.89 1536.30,549.70 1534.30,549.48 1531.91,550.22"/>
    </edge>
    <edge id=":clusterJ20_J21_J23_J24_1" function="internal">
        <lane id=":clusterJ20_J21_J23_J24_1_0" index="0" disallow="tram rail_urban rail rail_electric rail_fast ship container cable_car subway aircraft wheelchair scooter drone" speed="13.89" length="16.84" shape="1539.20,553.04 1532.51,537.75"/>
        <lane id=":clusterJ20_J21_J23_J24_1_1" index="1" disallow="tram rail_urban rail rail_electric rail_fast ship container cable_car subway aircraft wheelchair scooter drone" speed="13.89" length="16.84" shape="1542.16,551.84 1535.42,536.41"/>
        <lane id=":clusterJ20_J21_J23_J24_1_2" index="2" disallow="tram rail_urban rail rail_electric rail_fast ship container cable_car subway aircraft wheelchair scooter drone" speed="13.89" length="16.84" shape="1545.13,550.63 1538.33,535.07"/>
    </edge>
    <edge id=":clusterJ20_J21_J23_J24_4" function="internal">
        <lane id=":clusterJ20_J21_J23_J24_4_0" index="0" disallow="tram rail_urban rail rail_electric rail_fast ship container cable_car subway aircraft wheelchair scooter drone" speed="7.64" length="12.28" shape="1545.13,550.63 1543.91,546.72 1543.75,543.59 1544.65,541.23 1546.62,539.65"/>
    </edge>
    <edge id=":clusterJ20_J21_J23_J24_5" function="internal">
        <lane id=":clusterJ20_J21_J23_J24_5_0" index="0" disallow="tram rail_urban rail rail_electric rail_fast ship container cable_car subway aircraft wheelchair scooter drone" speed="13.89" length="17.83" shape="1548.00,542.54 1531.91,550.22"/>
    </edge>
    <edge id=":clusterJ20_J21_J23_J24_6" function="internal">
        <lane id=":clusterJ20_J21_J23_J24_6_0" index="0" disallow="tram rail_urban rail rail_electric rail_fast ship container cable_car subway aircraft wheelchair scooter drone" speed="7.80" length="13.58" shape="1548.00,542.54 1545.47,542.99 1543.02,541.89 1540.64,539.26 1538.33,535.07"/>
    </edge>
    <edge id=":clusterJ20_J21_J23_J24_7" function="internal">
        <lane id=":clusterJ20_J21_J23_J24_7_0" index="0" disallow="tram rail_urban rail rail_electric rail_fast ship container cable_car subway aircraft wheelchair scooter drone" speed="7.17" length="11.06" shape="1530.53,547.34 1532.62,545.80 1533.65,543.69 1533.61,541.00 1532.51,537.75"/>
    </edge>
    <edge id=":clusterJ20_J21_J23_J24_8" function="internal">
        <lane id=":clusterJ20_J21_J23_J24_8_0" index="0" disallow="tram rail_urban rail rail_electric rail_fast ship container cable_car subway aircraft wheelchair scooter drone" speed="13.89" length="17.83" shape="1530.53,547.34 1546.62,539.65"/>
    </edge>
    <edge id=":clusterJ20_J21_J23_J24_9" function="internal">
        <lane id=":clusterJ20_J21_J23_J24_9_0" index="0" disallow="tram rail_urban rail rail_electric rail_fast ship container cable_car subway aircraft wheelchair scooter drone" speed="3.65" length="4.67" shape="1530.53,547.34 1531.96,547.54 1532.67,548.09 1532.65,548.99 1531.91,550.22"/>
    </edge>
    <edge id=":clusterJ25_J26_J28_0" function="internal">
        <lane id=":clusterJ25_J26_J28_0_0" index="0" disallow="tram rail_urban rail rail_electric rail_fast ship container cable_car subway aircraft wheelchair scooter drone" speed="13.89" length="14.34" shape="1444.61,326.47 1438.93,313.34"/>
        <lane id=":clusterJ25_J26_J28_0_1" index="1" disallow="tram rail_urban rail rail_electric rail_fast ship container cable_car subway aircraft wheelchair scooter drone" speed="13.89" length="14.34" shape="1447.59,325.30 1441.88,312.10"/>
    </edge>
    <edge id=":clusterJ25_J26_J28_2" function="internal">
        <lane id=":clusterJ25_J26_J28_2_0" index="0" disallow="tram rail_urban rail rail_electric rail_fast ship container cable_car subway aircraft wheelchair scooter drone" speed="6.88" length="9.32" shape="1447.59,325.30 1446.95,322.78 1447.18,320.61 1448.27,318.80 1450.22,317.35"/>
    </edge>
    <edge id=":clusterJ25_J26_J28_3" function="internal">
        <lane id=":clusterJ25_J26_J28_3_0" index="0" disallow="tram rail_urban rail rail_electric rail_fast ship container cable_car subway aircraft wheelchair scooter drone" speed="6.81" length="9.24" shape="1436.33,321.19 1438.29,319.73 1439.38,317.93 1439.59,315.80 1438.93,313.34"/>
        <lane id=":clusterJ25_J26_J28_3_1" index="1" disallow="tram rail_urban rail rail_electric rail_fast ship container cable_car subway aircraft wheelchair scooter drone" speed="8.26" length="14.04" shape="1437.85,324.01 1440.86,321.77 1442.53,319.04 1442.87,315.82 1441.88,312.10"/>
    </edge>
    <edge id=":clusterJ25_J26_J28_5" function="internal">
        <lane id=":clusterJ25_J26_J28_5_0" index="0" disallow="tram rail_urban rail rail_electric rail_fast ship container cable_car subway aircraft wheelchair scooter drone" speed="8.33" length="14.29" shape="1437.85,324.01 1441.33,321.56 1443.27,319.26 1445.22,316.96 1448.71,314.53"/>
        <lane id=":clusterJ25_J26_J28_5_1" index="1" disallow="tram rail_urban rail rail_electric rail_fast ship container cable_car subway aircraft wheelchair scooter drone" speed="8.33" length="14.29" shape="1437.85,324.01 1450.22,317.35"/>
    </edge>
    <edge id=":clusterJ2_J3_0" function="internal">
        <lane id=":clusterJ2_J3_0_0" index="0" disallow="tram rail_urban rail rail_electric rail_fast ship container cable_car subway aircraft wheelchair scooter drone" speed="13.89" length="10.83" shape="1574.65,640.09 1570.56,630.07"/>
        <lane id=":clusterJ2_J3_0_1" index="1" disallow="tram rail_urban rail rail_electric rail_fast ship container cable_car subway aircraft wheelchair scooter drone" speed="13.89" length="10.83" shape="1577.61,638.89 1573.53,628.86"/>
        <lane id=":clusterJ2_J3_0_2" index="2" disallow="tram rail_urban rail rail_electric rail_fast ship container cable_car subway aircraft wheelchair scooter drone" speed="13.89" length="10.83" shape="1580.57,637.68 1576.49,627.65"/>
    </edge>
    <edge id=":clusterJ2_J3_3" function="internal">
        <lane id=":clusterJ2_J3_3_0" index="0" disallow="tram rail_urban rail rail_electric rail_fast ship container cable_car subway aircraft wheelchair scooter drone" speed="6.56" length="8.85" shape="1567.59,637.32 1569.65,636.00 1570.83,634.35 1571.13,632.37 1570.56,630.07"/>
    </edge>
    <edge id=":clusterJ2_clusterJ4_J5_J6_J7_0" function="internal">
        <lane id=":clusterJ2_clusterJ4_J5_J6_J7_0_0" index="0" disallow="tram rail_urban rail rail_electric rail_fast ship container cable_car subway aircraft wheelchair scooter drone" speed="13.89" length="10.58" shape="874.08,731.66 869.94,721.92"/>
    </edge>
    <edge id=":clusterJ2_clusterJ4_J5_J6_J7_1" function="internal">
        <lane id=":clusterJ2_clusterJ4_J5_J6_J7_1_0" index="0" disallow="tram rail_urban rail rail_electric rail_fast ship container cable_car subway aircraft wheelchair scooter drone" speed="3.65" length="1.44" shape="874.08,731.66 874.29,730.23"/>
    </edge>
    <edge id=":clusterJ2_clusterJ4_J5_J6_J7_5" function="internal">
        <lane id=":clusterJ2_clusterJ4_J5_J6_J7_5_0" index="0" disallow="tram rail_urban rail rail_electric rail_fast ship container cable_car subway aircraft wheelchair scooter drone" speed="3.65" length="3.23" shape="874.29,730.23 874.85,729.53 875.74,729.55 876.98,730.30"/>
    </edge>
    <edge id=":clusterJ2_clusterJ4_J5_J6_J7_2" function="internal">